Circuit: * C:\Users\Mehmet Onurcan KAYA\Documents\sage\simü\1son.asc

Direct Newton iteration for .op point succeeded.
Ignoring empty pin current: Ix(u1:5)
Ignoring empty pin current: Ix(u1:7)
Ignoring empty pin current: Ix(u1:9)
Ignoring empty pin current: Ix(u1:13)
Ignoring empty pin current: Ix(u1:16)
Ignoring empty pin current: Ix(u1:17)
Ignoring empty pin current: Ix(u1:18)
Ignoring empty pin current: Ix(u1:19)
Ignoring empty pin current: Ix(u1:20)
Ignoring empty pin current: Ix(u1:21)
Ignoring empty pin current: Ix(u1:22)
Ignoring empty pin current: Ix(u1:5)
Ignoring empty pin current: Ix(u1:7)
Ignoring empty pin current: Ix(u1:9)
Ignoring empty pin current: Ix(u1:13)
Ignoring empty pin current: Ix(u1:16)
Ignoring empty pin current: Ix(u1:17)
Ignoring empty pin current: Ix(u1:18)
Ignoring empty pin current: Ix(u1:19)
Ignoring empty pin current: Ix(u1:20)
Ignoring empty pin current: Ix(u1:21)
Ignoring empty pin current: Ix(u1:22)

Date: Tue Jun 11 09:18:52 2019
Total elapsed time: 24.316 seconds.

tnom = 27
temp = 27
method = modified trap
totiter = 1249846
traniter = 1249809
tranpoints = 342422
accept = 253472
rejected = 88950
matrix size = 71
fillins = 16
solver = Normal
Thread vector: 26.0/9.1[3] 7.1/6.0[3] 1.7/3.4[1] 0.2/2.0[1]  2592/500
Matrix Compiler1: 3.32 KB object code size  1.6/0.9/[0.5]
Matrix Compiler2: 4.73 KB object code size  2.0/1.6/[0.5]

