Circuit: * C:\Users\Mehmet Onurcan KAYA\Documents\sage\simü\Draft2.asc

Direct Newton iteration failed to find .op point.  (Use ".option noopiter" to skip.)
Starting Gmin stepping
Gmin = 10
Gmin = 1.07374
Gmin = 0.115292
Gmin = 0.0123794
Gmin = 0.00132923
Gmin = 0.000142725
vernier = 0.5
vernier = 0.25
Gmin = 5.17847e-005
vernier = 0.125
vernier = 0.0625
vernier = 0.03125
vernier = 0.015625
Gmin = 5.29395e-005
vernier = 0.0208333
vernier = 0.0277778
Gmin = 5.03685e-005
vernier = 0.037037
Gmin = 4.64641e-005
vernier = 0.0493827
vernier = 0.0658435
Gmin = 4.07258e-005
vernier = 0.0877914
vernier = 0.117055
Gmin = 3.30749e-005
vernier = 0.156073
Gmin = 2.36455e-005
vernier = 0.208098
vernier = 0.277464
Gmin = 1.37275e-005
vernier = 0.369952
vernier = 0.493269
Gmin = 5.87774e-006
vernier = 0.657691
Gmin = 1.53513e-006
vernier = 0.876922
vernier = 1
Gmin = 2.05489e-007
Gmin = 2.20642e-008
Gmin = 2.36913e-009
Gmin = 2.54383e-010
Gmin = 2.73142e-011
Gmin = 2.93284e-012
Gmin = 3.14911e-013
Gmin = 0
Gmin stepping succeeded in finding the operating point.

Ignoring empty pin current: Ix(u1:5)
Ignoring empty pin current: Ix(u1:7)
Ignoring empty pin current: Ix(u1:9)
Ignoring empty pin current: Ix(u1:13)
Ignoring empty pin current: Ix(u1:16)
Ignoring empty pin current: Ix(u1:17)
Ignoring empty pin current: Ix(u1:18)
Ignoring empty pin current: Ix(u1:19)
Ignoring empty pin current: Ix(u1:20)
Ignoring empty pin current: Ix(u1:21)
Ignoring empty pin current: Ix(u1:22)
Ignoring empty pin current: Ix(u1:5)
Ignoring empty pin current: Ix(u1:7)
Ignoring empty pin current: Ix(u1:9)
Ignoring empty pin current: Ix(u1:13)
Ignoring empty pin current: Ix(u1:16)
Ignoring empty pin current: Ix(u1:17)
Ignoring empty pin current: Ix(u1:18)
Ignoring empty pin current: Ix(u1:19)
Ignoring empty pin current: Ix(u1:20)
Ignoring empty pin current: Ix(u1:21)
Ignoring empty pin current: Ix(u1:22)

Date: Tue Jun 11 01:01:17 2019
Total elapsed time: 17.679 seconds.

tnom = 27
temp = 27
method = modified trap
totiter = 374182
traniter = 373010
tranpoints = 125634
accept = 95536
rejected = 30098
matrix size = 71
fillins = 15
solver = Normal
Thread vector: 10.9/6.5[3] 4.8/3.7[3] 1.1/2.3[1] 0.3/1.1[1]  2592/500
Matrix Compiler1: 3.28 KB object code size  1.1/0.6/[0.3]
Matrix Compiler2: 4.71 KB object code size  1.0/1.5/[0.4]

