Circuit: * C:\Users\Mehmet Onurcan KAYA\Documents\sage\simü\Draft1.asc

Direct Newton iteration failed to find .op point.  (Use ".option noopiter" to skip.)
Starting Gmin stepping
Gmin = 10
Gmin = 1.07374
Gmin = 0.115292
Gmin = 0.0123794
Gmin = 0.00132923
Gmin = 0.000142725
vernier = 0.5
vernier = 0.25
Gmin = 4.89078e-005
vernier = 0.125
vernier = 0.0625
vernier = 0.03125
vernier = 0.015625
Gmin = 4.85279e-005
vernier = 0.0208333
vernier = 0.0277778
Gmin = 4.61711e-005
vernier = 0.037037
Gmin = 4.25921e-005
vernier = 0.0493827
vernier = 0.0658435
Gmin = 3.7332e-005
vernier = 0.0877914
vernier = 0.117055
Gmin = 3.03187e-005
vernier = 0.156073
Gmin = 2.16751e-005
vernier = 0.208098
vernier = 0.277464
Gmin = 1.25835e-005
vernier = 0.369952
vernier = 0.493269
Gmin = 5.38793e-006
vernier = 0.657691
Gmin = 1.4072e-006
vernier = 0.876922
vernier = 1
Gmin = 1.88365e-007
Gmin = 2.02256e-008
Gmin = 2.1717e-009
Gmin = 2.33185e-010
Gmin = 2.5038e-011
Gmin = 2.68844e-012
Gmin = 2.88669e-013
Gmin = 0
Gmin stepping succeeded in finding the operating point.

Ignoring empty pin current: Ix(u1:5)
Ignoring empty pin current: Ix(u1:7)
Ignoring empty pin current: Ix(u1:9)
Ignoring empty pin current: Ix(u1:13)
Ignoring empty pin current: Ix(u1:16)
Ignoring empty pin current: Ix(u1:17)
Ignoring empty pin current: Ix(u1:18)
Ignoring empty pin current: Ix(u1:19)
Ignoring empty pin current: Ix(u1:20)
Ignoring empty pin current: Ix(u1:21)
Ignoring empty pin current: Ix(u1:22)
Ignoring empty pin current: Ix(u1:5)
Ignoring empty pin current: Ix(u1:7)
Ignoring empty pin current: Ix(u1:9)
Ignoring empty pin current: Ix(u1:13)
Ignoring empty pin current: Ix(u1:16)
Ignoring empty pin current: Ix(u1:17)
Ignoring empty pin current: Ix(u1:18)
Ignoring empty pin current: Ix(u1:19)
Ignoring empty pin current: Ix(u1:20)
Ignoring empty pin current: Ix(u1:21)
Ignoring empty pin current: Ix(u1:22)

Date: Mon Jun 10 22:48:34 2019
Total elapsed time: 0.347 seconds.

tnom = 27
temp = 27
method = modified trap
totiter = 3218
traniter = 2098
tranpoints = 1049
accept = 1049
rejected = 0
matrix size = 62
fillins = 4
solver = Normal
Thread vector: 5.8/4.3[3] 7.1/2.9[3] 0.8/2.1[1] 0.1/1.5[1]  2592/500
Matrix Compiler1: 2.20 KB object code size  0.6/0.7/[0.4]
Matrix Compiler2: 3.84 KB object code size  0.4/0.6/[0.4]

